
OS:Version,
  {e90c83ca-8a6f-4821-9abe-e31a1588ff83}, !- Handle
  1.8.0;                                  !- Version Identifier

OS:Site,
  {f6bc4f72-5921-4948-81bb-d2f2c354b7b8}, !- Handle
  Chicago Ohare Intl Ap_IL_USA,           !- Name
  41.98,                                  !- Latitude {deg}
  -87.92,                                 !- Longitude {deg}
  -6,                                     !- Time Zone {hr}
  201,                                    !- Elevation {m}
  City;                                   !- Terrain

OS:SimulationControl,
  {91960bc7-8aad-49bc-b36e-8fa824ddadc6}, !- Handle
  Yes,                                    !- Do Zone Sizing Calculation
  Yes,                                    !- Do System Sizing Calculation
  Yes,                                    !- Do Plant Sizing Calculation
  No,                                     !- Run Simulation for Sizing Periods
  Yes,                                    !- Run Simulation for Weather File Run Periods
  0.04,                                   !- Loads Convergence Tolerance Value
  0.2,                                    !- Temperature Convergence Tolerance Value {deltaC}
  FullInteriorAndExterior,                !- Solar Distribution
  25,                                     !- Maximum Number of Warmup Days
  6;                                      !- Minimum Number of Warmup Days

OS:Surface,
  {eb6b6c1b-f95a-4af7-83c1-6c96460f904a}, !- Handle
  TopFloor_Plenum_Floor_1,                !- Name
  Floor,                                  !- Surface Type
  {2025fdbd-7261-4530-a6ae-5a8caa56d068}, !- Construction Name
  {764f8ae0-da31-48c7-b64a-080f777f6600}, !- Space Name
  Surface,                                !- Outside Boundary Condition
  {2a88e534-6895-4ea5-8a12-fd942d405d6c}, !- Outside Boundary Condition Object
  NoSun,                                  !- Sun Exposure
  NoWind,                                 !- Wind Exposure
  ,                                       !- View Factor to Ground
  ,                                       !- Number of Vertices
  45.3375, 4.5732, 10.668,                !- X,Y,Z Vertex 1 {m}
  49.911, 0, 10.668,                      !- X,Y,Z Vertex 2 {m}
  0, 0, 10.668,                           !- X,Y,Z Vertex 3 {m}
  4.5732, 4.5732, 10.668;                 !- X,Y,Z Vertex 4 {m}

OS:Construction,
  {2025fdbd-7261-4530-a6ae-5a8caa56d068}, !- Handle
  Typical Interior Floor,                 !- Name
  {775916d1-3fad-4cfc-864f-1b85260139ed}, !- Surface Rendering Name
  {162ba2e5-db3d-43af-ab3d-1fb527d496d8}, !- Layer 1
  {a13a95c5-222f-4471-970e-ce553f605170}; !- Layer 2

OS:Material,
  {162ba2e5-db3d-43af-ab3d-1fb527d496d8}, !- Handle
  100mm Normalweight concrete floor,      !- Name
  MediumSmooth,                           !- Roughness
  0.1016,                                 !- Thickness {m}
  2.31,                                   !- Conductivity {W/m-K}
  2322,                                   !- Density {kg/m3}
  832,                                    !- Specific Heat {J/kg-K}
  0.9,                                    !- Thermal Absorptance
  0.7,                                    !- Solar Absorptance
  0.7;                                    !- Visible Absorptance

OS:Material:NoMass,
  {a13a95c5-222f-4471-970e-ce553f605170}, !- Handle
  CP02 CARPET PAD,                        !- Name
  VeryRough,                              !- Roughness
  0.21648,                                !- Thermal Resistance {m2-K/W}
  0.9,                                    !- Thermal Absorptance
  0.7,                                    !- Solar Absorptance
  0.8;                                    !- Visible Absorptance

OS:ThermalZone,
  {21a80833-aaff-4d53-b61b-643b62966db5}, !- Handle
  TopFloor_Plenum ZN Thermal Zone,        !- Name
  ,                                       !- Multiplier
  ,                                       !- Ceiling Height {m}
  ,                                       !- Volume {m3}
  ,                                       !- Floor Area {m2}
  ,                                       !- Zone Inside Convection Algorithm
  ,                                       !- Zone Outside Convection Algorithm
  ,                                       !- Zone Conditioning Equipment List Name
  {188a1321-fc91-49c2-bc63-edc3f7ea293e}, !- Zone Air Inlet Port List
  {fa5e3f3d-0224-448c-b2fb-80d16f5facec}, !- Zone Air Exhaust Port List
  {b38997a9-66f9-4c43-88f6-894515ba1165}, !- Zone Air Node Name
  ,                                       !- Zone Return Air Node Name
  ,                                       !- Primary Daylighting Control Name
  ,                                       !- Fraction of Zone Controlled by Primary Daylighting Control
  ,                                       !- Secondary Daylighting Control Name
  ,                                       !- Fraction of Zone Controlled by Secondary Daylighting Control
  ,                                       !- Illuminance Map Name
  {27a49be9-5566-4a38-af32-733853280edc}, !- Group Rendering Name
  ,                                       !- Thermostat Name
  No,                                     !- Use Ideal Air Loads
  ;                                       !- Humidistat Name

OS:Node,
  {b901b514-c8e4-4045-9a4a-e3d96be42f07}, !- Handle
  {78bfc6fa-de69-42e0-af74-fdbcaa670306}, !- Name
  {b38997a9-66f9-4c43-88f6-894515ba1165}, !- Inlet Port
  ;                                       !- Outlet Port

OS:Connection,
  {b38997a9-66f9-4c43-88f6-894515ba1165}, !- Handle
  {66efd020-3482-45e1-8103-625cb7d6c2e2}, !- Name
  {21a80833-aaff-4d53-b61b-643b62966db5}, !- Source Object
  11,                                     !- Outlet Port
  {b901b514-c8e4-4045-9a4a-e3d96be42f07}, !- Target Object
  2;                                      !- Inlet Port

OS:PortList,
  {188a1321-fc91-49c2-bc63-edc3f7ea293e}, !- Handle
  {b4dd9c70-fdce-4dcd-b51b-1a48029829c3}, !- Name
  {21a80833-aaff-4d53-b61b-643b62966db5}; !- HVAC Component

OS:PortList,
  {fa5e3f3d-0224-448c-b2fb-80d16f5facec}, !- Handle
  {0234e508-6cb9-421a-8214-64816aecf266}, !- Name
  {21a80833-aaff-4d53-b61b-643b62966db5}; !- HVAC Component

OS:Sizing:Zone,
  {b8fb1b43-aa80-44a6-8c3a-e7673ea97ec5}, !- Handle
  {21a80833-aaff-4d53-b61b-643b62966db5}, !- Zone or ZoneList Name
  14,                                     !- Zone Cooling Design Supply Air Temperature {C}
  40,                                     !- Zone Heating Design Supply Air Temperature {C}
  0.0085,                                 !- Zone Cooling Design Supply Air Humidity Ratio {kg-H2O/kg-air}
  0.008,                                  !- Zone Heating Design Supply Air Humidity Ratio {kg-H2O/kg-air}
  ,                                       !- Zone Heating Sizing Factor
  ,                                       !- Zone Cooling Sizing Factor
  DesignDay,                              !- Cooling Design Air Flow Method
  ,                                       !- Cooling Design Air Flow Rate {m3/s}
  ,                                       !- Cooling Minimum Air Flow per Zone Floor Area {m3/s-m2}
  ,                                       !- Cooling Minimum Air Flow {m3/s}
  ,                                       !- Cooling Minimum Air Flow Fraction
  DesignDay,                              !- Heating Design Air Flow Method
  ,                                       !- Heating Design Air Flow Rate {m3/s}
  ,                                       !- Heating Maximum Air Flow per Zone Floor Area {m3/s-m2}
  ,                                       !- Heating Maximum Air Flow {m3/s}
  ,                                       !- Heating Maximum Air Flow Fraction
  ,                                       !- Design Zone Air Distribution Effectiveness in Cooling Mode
  ;                                       !- Design Zone Air Distribution Effectiveness in Heating Mode

OS:ZoneHVAC:EquipmentList,
  {5a8544dd-324c-4e3f-a98b-cbd4c4f1b9bd}, !- Handle
  {990470a0-ce3a-4923-b175-78838cce42f7}, !- Name
  {21a80833-aaff-4d53-b61b-643b62966db5}; !- Thermal Zone

OS:Space,
  {764f8ae0-da31-48c7-b64a-080f777f6600}, !- Handle
  TopFloor_Plenum ZN,                     !- Name
  {b3bd901a-2a9f-4d70-b641-168917399375}, !- Space Type Name
  ,                                       !- Default Construction Set Name
  ,                                       !- Default Schedule Set Name
  -0,                                     !- Direction of Relative North {deg}
  0,                                      !- X Origin {m}
  0,                                      !- Y Origin {m}
  0,                                      !- Z Origin {m}
  ,                                       !- Building Story Name
  {21a80833-aaff-4d53-b61b-643b62966db5}, !- Thermal Zone Name
  No,                                     !- Part of Total Floor Area
  ;                                       !- Design Specification Outdoor Air Object Name

OS:Schedule:Day,
  {7c40559c-b1e1-4c78-b7a2-ccd170a8ca58}, !- Handle
  OfficeMedium BLDG_LIGHT_SCH Summer Design Day 1, !- Name
  {a76b8ee1-ba94-4d47-b8a2-56a57bdcbd35}, !- Schedule Type Limits Name
  ,                                       !- Interpolate to Timestep
  24,                                     !- Hour 1
  0,                                      !- Minute 1
  1;                                      !- Value Until Time 1

OS:ScheduleTypeLimits,
  {a76b8ee1-ba94-4d47-b8a2-56a57bdcbd35}, !- Handle
  Fractional,                             !- Name
  0,                                      !- Lower Limit Value {BasedOnField A4}
  1,                                      !- Upper Limit Value {BasedOnField A4}
  Continuous;                             !- Numeric Type

OS:Schedule:Day,
  {c0485420-5f45-465d-92a5-153bc833a077}, !- Handle
  OfficeMedium CLGSETP_SCH_NO_OPTIMUM Summer Design Day 2, !- Name
  {df7a3cd2-8374-42fd-bb72-3d07f3e055f4}, !- Schedule Type Limits Name
  ,                                       !- Interpolate to Timestep
  5,                                      !- Hour 1
  0,                                      !- Minute 1
  26.7,                                   !- Value Until Time 1
  22,                                     !- Hour 2
  0,                                      !- Minute 2
  24,                                     !- Value Until Time 2
  24,                                     !- Hour 3
  0,                                      !- Minute 3
  26.7;                                   !- Value Until Time 3

OS:ScheduleTypeLimits,
  {df7a3cd2-8374-42fd-bb72-3d07f3e055f4}, !- Handle
  Temperature,                            !- Name
  ,                                       !- Lower Limit Value {BasedOnField A4}
  ,                                       !- Upper Limit Value {BasedOnField A4}
  Continuous,                             !- Numeric Type
  temperature;                            !- Unit Type

OS:Surface,
  {f19697e5-6edf-4dad-9978-ce7a99a90c81}, !- Handle
  Perimeter_mid_Plenum_Wall_West,         !- Name
  Wall,                                   !- Surface Type
  {bd78d3f0-469b-4776-8472-606dd0b22ad2}, !- Construction Name
  {fdeb7898-e126-4cba-a62f-5abf6f873037}, !- Space Name
  Outdoors,                               !- Outside Boundary Condition
  ,                                       !- Outside Boundary Condition Object
  SunExposed,                             !- Sun Exposure
  WindExposed,                            !- Wind Exposure
  ,                                       !- View Factor to Ground
  ,                                       !- Number of Vertices
  0, 33.2738, 7.9248,                     !- X,Y,Z Vertex 1 {m}
  0, 33.2738, 6.7056,                     !- X,Y,Z Vertex 2 {m}
  0, 0, 6.7056,                           !- X,Y,Z Vertex 3 {m}
  0, 0, 7.9248;                           !- X,Y,Z Vertex 4 {m}

OS:Construction,
  {bd78d3f0-469b-4776-8472-606dd0b22ad2}, !- Handle
  Typical Insulated Steel Framed Exterior Wall R-15.63, !- Name
  {32b76ad6-3a58-4e21-b12d-75b12fb676c1}, !- Surface Rendering Name
  {ca43b516-8a78-43b6-a80a-51880930df97}, !- Layer 1
  {76bd4f8a-976e-449b-bc34-0537122be8df}, !- Layer 2
  {d81e34d4-ada4-4a01-b854-157f0d074cea}, !- Layer 3
  {76bd4f8a-976e-449b-bc34-0537122be8df}; !- Layer 4

OS:Material,
  {ca43b516-8a78-43b6-a80a-51880930df97}, !- Handle
  25mm Stucco,                            !- Name
  Smooth,                                 !- Roughness
  0.0254,                                 !- Thickness {m}
  0.719999999999999,                      !- Conductivity {W/m-K}
  1855.99999999999,                       !- Density {kg/m3}
  839.999999999997,                       !- Specific Heat {J/kg-K}
  0.9,                                    !- Thermal Absorptance
  0.7,                                    !- Solar Absorptance
  0.7;                                    !- Visible Absorptance

OS:Material,
  {76bd4f8a-976e-449b-bc34-0537122be8df}, !- Handle
  5/8 in. Gypsum Board,                   !- Name
  MediumSmooth,                           !- Roughness
  0.0159,                                 !- Thickness {m}
  0.159999999999999,                      !- Conductivity {W/m-K}
  799.999999999999,                       !- Density {kg/m3}
  1090,                                   !- Specific Heat {J/kg-K}
  0.9,                                    !- Thermal Absorptance
  0.7,                                    !- Solar Absorptance
  0.7;                                    !- Visible Absorptance

OS:Material:NoMass,
  {d81e34d4-ada4-4a01-b854-157f0d074cea}, !- Handle
  Typical Insulation R-13.45,             !- Name
  Smooth,                                 !- Roughness
  2.36800018612829,                       !- Thermal Resistance {m2-K/W}
  0.9,                                    !- Thermal Absorptance
  0.7,                                    !- Solar Absorptance
  0.7;                                    !- Visible Absorptance

OS:ThermalZone,
  {3675b5bd-b76e-4aaa-a175-402eaaa161a3}, !- Handle
  MidFloor_Plenum ZN Thermal Zone,        !- Name
  ,                                       !- Multiplier
  ,                                       !- Ceiling Height {m}
  ,                                       !- Volume {m3}
  ,                                       !- Floor Area {m2}
  ,                                       !- Zone Inside Convection Algorithm
  ,                                       !- Zone Outside Convection Algorithm
  ,                                       !- Zone Conditioning Equipment List Name
  {3781fd95-2506-4acc-98c4-69a35ddfff8e}, !- Zone Air Inlet Port List
  {0c81589e-bf75-45fb-aa66-a058c3d8a0a1}, !- Zone Air Exhaust Port List
  {f5a26fb9-5a05-4f55-87aa-6ac6e4141f97}, !- Zone Air Node Name
  ,                                       !- Zone Return Air Node Name
  ,                                       !- Primary Daylighting Control Name
  ,                                       !- Fraction of Zone Controlled by Primary Daylighting Control
  ,                                       !- Secondary Daylighting Control Name
  ,                                       !- Fraction of Zone Controlled by Secondary Daylighting Control
  ,                                       !- Illuminance Map Name
  {2fb1f555-39e4-466d-8f3b-745af9517060}, !- Group Rendering Name
  ,                                       !- Thermostat Name
  No,                                     !- Use Ideal Air Loads
  ;                                       !- Humidistat Name

OS:Node,
  {ea332b8a-fcf0-459c-8c3e-68b786af0194}, !- Handle
  {b417e89f-6132-4264-bd13-8f4fb32400fd}, !- Name
  {f5a26fb9-5a05-4f55-87aa-6ac6e4141f97}, !- Inlet Port
  ;                                       !- Outlet Port

OS:Connection,
  {f5a26fb9-5a05-4f55-87aa-6ac6e4141f97}, !- Handle
  {cb27ee5b-ec84-487d-b1b3-99662102cce6}, !- Name
  {3675b5bd-b76e-4aaa-a175-402eaaa161a3}, !- Source Object
  11,                                     !- Outlet Port
  {ea332b8a-fcf0-459c-8c3e-68b786af0194}, !- Target Object
  2;                                      !- Inlet Port

OS:PortList,
  {3781fd95-2506-4acc-98c4-69a35ddfff8e}, !- Handle
  {ad419aa7-fda0-4dcc-be05-f4df8acfd622}, !- Name
  {3675b5bd-b76e-4aaa-a175-402eaaa161a3}; !- HVAC Component

OS:PortList,
  {0c81589e-bf75-45fb-aa66-a058c3d8a0a1}, !- Handle
  {a17d70e6-c1fd-45b7-ab4b-ac97c77ed6b7}, !- Name
  {3675b5bd-b76e-4aaa-a175-402eaaa161a3}; !- HVAC Component

OS:Sizing:Zone,
  {9f3af4ff-3c65-4a71-81b2-255e78ff5a66}, !- Handle
  {3675b5bd-b76e-4aaa-a175-402eaaa161a3}, !- Zone or ZoneList Name
  14,                                     !- Zone Cooling Design Supply Air Temperature {C}
  40,                                     !- Zone Heating Design Supply Air Temperature {C}
  0.0085,                                 !- Zone Cooling Design Supply Air Humidity Ratio {kg-H2O/kg-air}
  0.008,                                  !- Zone Heating Design Supply Air Humidity Ratio {kg-H2O/kg-air}
  ,                                       !- Zone Heating Sizing Factor
  ,                                       !- Zone Cooling Sizing Factor
  DesignDay,                              !- Cooling Design Air Flow Method
  ,                                       !- Cooling Design Air Flow Rate {m3/s}
  ,                                       !- Cooling Minimum Air Flow per Zone Floor Area {m3/s-m2}
  ,                                       !- Cooling Minimum Air Flow {m3/s}
  ,                                       !- Cooling Minimum Air Flow Fraction
  DesignDay,                              !- Heating Design Air Flow Method
  ,                                       !- Heating Design Air Flow Rate {m3/s}
  ,                                       !- Heating Maximum Air Flow per Zone Floor Area {m3/s-m2}
  ,                                       !- Heating Maximum Air Flow {m3/s}
  ,                                       !- Heating Maximum Air Flow Fraction
  ,                                       !- Design Zone Air Distribution Effectiveness in Cooling Mode
  ;                                       !- Design Zone Air Distribution Effectiveness in Heating Mode

OS:ZoneHVAC:EquipmentList,
  {f17a8221-4879-4f23-84e8-74f5951913c2}, !- Handle
  {18dc0417-441e-4a8e-beaa-54d4f0866708}, !- Name
  {3675b5bd-b76e-4aaa-a175-402eaaa161a3}; !- Thermal Zone

OS:Space,
  {fdeb7898-e126-4cba-a62f-5abf6f873037}, !- Handle
  MidFloor_Plenum ZN,                     !- Name
  {b3bd901a-2a9f-4d70-b641-168917399375}, !- Space Type Name
  ,                                       !- Default Construction Set Name
  ,                                       !- Default Schedule Set Name
  0,                                      !- Direction of Relative North {deg}
  0,                                      !- X Origin {m}
  0,                                      !- Y Origin {m}
  0,                                      !- Z Origin {m}
  ,                                       !- Building Story Name
  {3675b5bd-b76e-4aaa-a175-402eaaa161a3}, !- Thermal Zone Name
  No;                                     !- Part of Total Floor Area

OS:ThermalZone,
  {2e0492d0-bc5f-47d3-bb21-36cae7110e38}, !- Handle
  Perimeter_mid_ZN_2 ZN Thermal Zone,     !- Name
  ,                                       !- Multiplier
  ,                                       !- Ceiling Height {m}
  ,                                       !- Volume {m3}
  ,                                       !- Floor Area {m2}
  ,                                       !- Zone Inside Convection Algorithm
  ,                                       !- Zone Outside Convection Algorithm
  ,                                       !- Zone Conditioning Equipment List Name
  {d13dbe9d-1d6b-4d9a-ba24-2e83dc4715cc}, !- Zone Air Inlet Port List
  {0b8eae40-d3bb-4149-90a6-3e353ff67408}, !- Zone Air Exhaust Port List
  {0ba38d03-ac65-46ac-b350-016b0f77922c}, !- Zone Air Node Name
  ,                                       !- Zone Return Air Node Name
  {35931c62-b721-4e73-a555-f73ad684df08}, !- Primary Daylighting Control Name
  0.549125208827059,                      !- Fraction of Zone Controlled by Primary Daylighting Control
  ,                                       !- Secondary Daylighting Control Name
  ,                                       !- Fraction of Zone Controlled by Secondary Daylighting Control
  ,                                       !- Illuminance Map Name
  {34163efb-dc3d-42f8-9168-5da3e225aeea}, !- Group Rendering Name
  {f28002c9-961b-4e6e-815b-3b12659fa524}, !- Thermostat Name
  No,                                     !- Use Ideal Air Loads
  ;                                       !- Humidistat Name

OS:Node,
  {6176e2fc-c93a-41ce-a177-3c63b04ebc0e}, !- Handle
  {f79f30a9-11ef-434a-8ac9-9e5fdfbb18fa}, !- Name
  {0ba38d03-ac65-46ac-b350-016b0f77922c}, !- Inlet Port
  ;                                       !- Outlet Port

OS:Connection,
  {0ba38d03-ac65-46ac-b350-016b0f77922c}, !- Handle
  {c8ebf8fc-fb72-4c4d-ae15-fd8381ab5ccf}, !- Name
  {2e0492d0-bc5f-47d3-bb21-36cae7110e38}, !- Source Object
  11,                                     !- Outlet Port
  {6176e2fc-c93a-41ce-a177-3c63b04ebc0e}, !- Target Object
  2;                                      !- Inlet Port

OS:PortList,
  {d13dbe9d-1d6b-4d9a-ba24-2e83dc4715cc}, !- Handle
  {36fd4084-b13a-405f-b064-a0c3557078c7}, !- Name
  {2e0492d0-bc5f-47d3-bb21-36cae7110e38}, !- HVAC Component
  {3c2856d3-462d-4d19-abf1-207eef62c372}; !- Port 1

OS:PortList,
  {0b8eae40-d3bb-4149-90a6-3e353ff67408}, !- Handle
  {192f2742-ef1d-4085-9de1-5fd1145b0b7a}, !- Name
  {2e0492d0-bc5f-47d3-bb21-36cae7110e38}, !- HVAC Component
  {b2ca64c2-f91f-4416-bd15-e6a565cefc92}; !- Port 1

OS:Sizing:Zone,
  {f9d3304d-9cda-4062-9247-f3e77ac1bf09}, !- Handle
  {2e0492d0-bc5f-47d3-bb21-36cae7110e38}, !- Zone or ZoneList Name
  12.7777777777778,                       !- Zone Cooling Design Supply Air Temperature {C}
  50.0000000000001,                       !- Zone Heating Design Supply Air Temperature {C}
  0.0085,                                 !- Zone Cooling Design Supply Air Humidity Ratio {kg-H2O/kg-air}
  0.008,                                  !- Zone Heating Design Supply Air Humidity Ratio {kg-H2O/kg-air}
  ,                                       !- Zone Heating Sizing Factor
  ,                                       !- Zone Cooling Sizing Factor
  DesignDay,                              !- Cooling Design Air Flow Method
  0,                                      !- Cooling Design Air Flow Rate {m3/s}
  0.000762,                               !- Cooling Minimum Air Flow per Zone Floor Area {m3/s-m2}
  0,                                      !- Cooling Minimum Air Flow {m3/s}
  0,                                      !- Cooling Minimum Air Flow Fraction
  DesignDay,                              !- Heating Design Air Flow Method
  0,                                      !- Heating Design Air Flow Rate {m3/s}
  0.002032,                               !- Heating Maximum Air Flow per Zone Floor Area {m3/s-m2}
  0.1415762,                              !- Heating Maximum Air Flow {m3/s}
  0.3,                                    !- Heating Maximum Air Flow Fraction
  1,                                      !- Design Zone Air Distribution Effectiveness in Cooling Mode
  1;                                      !- Design Zone Air Distribution Effectiveness in Heating Mode

OS:ZoneHVAC:EquipmentList,
  {01caf09a-fee0-4cef-b271-f9739c70bb2f}, !- Handle
  {34b73668-86c9-4af6-bfea-015ff5a05596}, !- Name
  {2e0492d0-bc5f-47d3-bb21-36cae7110e38}, !- Thermal Zone
  {e8c1b151-8c47-4c66-9766-c311bb18d6e7}, !- Zone Equipment 1
  1,                                      !- Zone Equipment Cooling Sequence 1
  1;                                      !- Zone Equipment Heating or No-Load Sequence 1

OS:Space,
  {9aefd1c8-a7be-4369-846e-6690d647f16e}, !- Handle
  Perimeter_mid_ZN_2 ZN,                  !- Name
  {9c549055-e928-4b05-9cc8-bee06a905c12}, !- Space Type Name
  ,                                       !- Default Construction Set Name
  ,                                       !- Default Schedule Set Name
  0,                                      !- Direction of Relative North {deg}
  0,                                      !- X Origin {m}
  0,                                      !- Y Origin {m}
  0,                                      !- Z Origin {m}
  ,                                       !- Building Story Name
  {2e0492d0-bc5f-47d3-bb21-36cae7110e38}, !- Thermal Zone Name
  Yes,                                    !- Part of Total Floor Area
  ;                                       !- Design Specification Outdoor Air Object Name

OS:ThermostatSetpoint:DualSetpoint,
  {f28002c9-961b-4e6e-815b-3b12659fa524}, !- Handle
  {e115a74c-4bbb-4752-b5e4-59b18840f998}, !- Name
  {6f050f53-bc80-48bd-aeaf-03e6b175263a}, !- Heating Setpoint Temperature Schedule Name
  {feff102b-1ba5-4f2e-b5a8-30060008e3f9}; !- Cooling Setpoint Temperature Schedule Name

OS:Schedule:Year,
  {6f050f53-bc80-48bd-aeaf-03e6b175263a}, !- Handle
  OfficeMedium HTGSETP_SCH_NO_OPTIMUM,    !- Name
  {df7a3cd2-8374-42fd-bb72-3d07f3e055f4}, !- Schedule Type Limits Name
  12,                                     !- Month 1
  31,                                     !- Day 1
  {5bb8f137-264b-4a9a-9264-88cc4665530a}; !- Week Schedule Until Date 1

OS:Schedule:Week,
  {5bb8f137-264b-4a9a-9264-88cc4665530a}, !- Handle
  Schedule:Week:Daily {189c0b83-11bb-4b0c-8f70-1ad65c589bb9}, !- Name
  ,                                       !- Schedule Rendering Name
  {67b7acf1-e109-42a4-8ee6-c641c54275a5}, !- Sunday Schedule:Day Name
  {0299d9d7-f09f-4f9a-8e8a-8e77999cfea2}, !- Monday Schedule:Day Name
  {0299d9d7-f09f-4f9a-8e8a-8e77999cfea2}, !- Tuesday Schedule:Day Name
  {0299d9d7-f09f-4f9a-8e8a-8e77999cfea2}, !- Wednesday Schedule:Day Name
  {0299d9d7-f09f-4f9a-8e8a-8e77999cfea2}, !- Thursday Schedule:Day Name
  {0299d9d7-f09f-4f9a-8e8a-8e77999cfea2}, !- Friday Schedule:Day Name
  {1776ca2e-818e-4424-acec-301dd98649cc}, !- Saturday Schedule:Day Name
  {67b7acf1-e109-42a4-8ee6-c641c54275a5}, !- Holiday Schedule:Day Name
  {8b90babe-4c04-45ab-b90f-24cf7b5f71d0}, !- SummerDesignDay Schedule:Day Name
  {e40ff817-2dfe-45fd-81bb-752a6106ccde}, !- WinterDesignDay Schedule:Day Name
  {67b7acf1-e109-42a4-8ee6-c641c54275a5}, !- CustomDay1 Schedule:Day Name
  {67b7acf1-e109-42a4-8ee6-c641c54275a5}; !- CustomDay2 Schedule:Day Name

OS:Schedule:Day,
  {67b7acf1-e109-42a4-8ee6-c641c54275a5}, !- Handle
  OfficeMedium HTGSETP_SCH_NO_OPTIMUM Default, !- Name
  {df7a3cd2-8374-42fd-bb72-3d07f3e055f4}, !- Schedule Type Limits Name
  ,                                       !- Interpolate to Timestep
  24,                                     !- Hour 1
  0,                                      !- Minute 1
  15.6;                                   !- Value Until Time 1

OS:Schedule:Day,
  {0299d9d7-f09f-4f9a-8e8a-8e77999cfea2}, !- Handle
  OfficeMedium HTGSETP_SCH_NO_OPTIMUM Summer Design Day 2, !- Name
  {df7a3cd2-8374-42fd-bb72-3d07f3e055f4}, !- Schedule Type Limits Name
  ,                                       !- Interpolate to Timestep
  5,                                      !- Hour 1
  0,                                      !- Minute 1
  15.6,                                   !- Value Until Time 1
  22,                                     !- Hour 2
  0,                                      !- Minute 2
  21,                                     !- Value Until Time 2
  24,                                     !- Hour 3
  0,                                      !- Minute 3
  15.6;                                   !- Value Until Time 3

OS:Schedule:Day,
  {1776ca2e-818e-4424-acec-301dd98649cc}, !- Handle
  OfficeMedium HTGSETP_SCH_NO_OPTIMUM Summer Design Day 1, !- Name
  {df7a3cd2-8374-42fd-bb72-3d07f3e055f4}, !- Schedule Type Limits Name
  ,                                       !- Interpolate to Timestep
  5,                                      !- Hour 1
  0,                                      !- Minute 1
  15.6,                                   !- Value Until Time 1
  17,                                     !- Hour 2
  0,                                      !- Minute 2
  21,                                     !- Value Until Time 2
  24,                                     !- Hour 3
  0,                                      !- Minute 3
  15.6;                                   !- Value Until Time 3

OS:Schedule:Day,
  {8b90babe-4c04-45ab-b90f-24cf7b5f71d0}, !- Handle
  OfficeMedium HTGSETP_SCH_NO_OPTIMUM Summer Design Day, !- Name
  {df7a3cd2-8374-42fd-bb72-3d07f3e055f4}, !- Schedule Type Limits Name
  ,                                       !- Interpolate to Timestep
  24,                                     !- Hour 1
  0,                                      !- Minute 1
  15.6;                                   !- Value Until Time 1

OS:Schedule:Day,
  {e40ff817-2dfe-45fd-81bb-752a6106ccde}, !- Handle
  OfficeMedium HTGSETP_SCH_NO_OPTIMUM Winter Design Day, !- Name
  {df7a3cd2-8374-42fd-bb72-3d07f3e055f4}, !- Schedule Type Limits Name
  ,                                       !- Interpolate to Timestep
  5,                                      !- Hour 1
  0,                                      !- Minute 1
  15.6,                                   !- Value Until Time 1
  6,                                      !- Hour 2
  0,                                      !- Minute 2